*A circuit to test the NOR2 subcircuit*

.include NOR2.cki

xNOR2 inA inB out Vdd NOR2
Vsupply Vdd 0 DC 180mV
VinA inA 0 pwl(0 0 9ms 0 10ms 180mV 19ms 180mV 20ms 0V 29ms 0V 30ms 180mV 40ms 180mV)
VinB inB 0 pwl(0 0 19ms 0 20ms 180mV 40ms 180mV)

.tran 0.02ms 40ms
.end
