.include transmission_gate_sub.cki
.include NOT.cki

xTG1 0 inB inBb out Vdd TGATE
xNOT1 inB inBb Vdd NOT
Vsupply Vdd 0 DC 180mV
VinA inA 0 180mV 
VinB inB 0 pwl(0 0 19ms 0 20ms 180mV 40ms 180mV)
xTG2 inA inBb inB out Vdd TGATE


.tran 0.1ms 40ms
.end
